11

N          0.78832        1.38316       0.00000
C          1.46702        0.21282       0.00000
C          0.80380       -1.01480       0.00000
C         -0.58774       -1.03123       0.00000
C         -1.28283        0.17432       0.00000
C         -0.56447        1.37061       0.00000
H          2.55971        0.29555       0.00000
H          1.37320       -1.94928       0.00000
H         -1.12978       -1.98237       0.00000
H         -2.37702        0.18833       0.00000
H         -1.05022        2.35289       0.00000
